/*--------------------------------*- C++ -*----------------------------------*\
| =========                 |                                                 |
| \\      /  F ield         | OpenFOAM: The Open Source CFD Toolbox           |
|  \\    /   O peration     | Version:  5                                     |
|   \\  /    A nd           | Web:      www.OpenFOAM.org                      |
|    \\/     M anipulation  |                                                 |
\*---------------------------------------------------------------------------*/
FoamFile
{
    version     2.0;
    format      ascii;
    class       dictionary;
    object      blockMeshDict;
}
// * * * * * * * * * * * * * * * * * * * * * * * * * * * * * * * * * * * * * //

convertToMeters 0.01;

vertices 
(
	//cup

	(0 0 0)		//0
	(0 0.5 0)	//1
	(5 0.5 0)	//2
	(5 0 0)		//3

	(0 0 0.1)	//4
	(0 0.5 0.1)	//5
	(5 0.5 0.1)	//6
	(5 0 0.1)	//7

	(0 0.5 0)	//8
	(0 5 0)		//9
	(0.5 5 0)	//10
	(0.5 0.5 0)	//11

	(0 0.5 0.1)	//12
	(0 5 0.1)	//13
	(0.5 5 0.1)	//14
	(0.5 0.5 0.1)	//15

	(4.5 0.5 0)	//16
	(4.5 5 0)	//17
	(5 5 0)		//18
	(5 0.5 0)	//19

	(4.5 0.5 0.1)	//20
	(4.5 5 0.1)	//21
	(5 5 0.1)	//22
	(5 0.5 0.1)	//23

	//handle

	(5 3.7 0)	//24
	(5 4 0)		//25
	(7 4 0)		//26
	(7 3.7 0)	//27

	(5 3.7 0.1)	//28
	(5 4 0.1)	//29
	(7 4 0.1)	//30
	(7 3.7 0.1)	//31

	(6.7 1.3 0)	//32
	(6.7 3.7 0)	//33
	(7 3.7 0)	//34	
	(7 1.3 0)	//35

	(6.7 1.3 0.1)	//36
	(6.7 3.7 0.1)	//37
	(7 3.7 0.1)	//38	
	(7 1.3 0.1)	//39


	(5 1 0)		//40
	(5 1.3 0)	//41
	(7 1.3 0)	//42
	(7 1 0)		//43

	(5 1 0.1)	//44
	(5 1.3 0.1)	//45
	(7 1.3 0.1)	//46
	(7 1 0.1)	//47

	
);
	

blocks
(
	//cup
	
	hex (4 7 3 0 5 6 2 1) (20 1 20) simpleGrading (1 1 1)
	hex (15 14 10 11 12 13 9 8) (20 1 20) simpleGrading (1 1 1)
	hex (21 20 16 17 22 23 19 18) (20 1 20) simpleGrading (1 1 1)

	//handle

	hex (28 31 27 24 29 30 26 25) (20 1 20) simpleGrading (1 1 1)
	hex (37 36 32 33 38 39 35 34) (20 1 20) simpleGrading (1 1 1)
	hex (44 47 43 40 45 46 42 41) (20 1 20) simpleGrading (1 1 1)

);

edges
(
   
);

boundary
(
    	coffee
	{
		type patch;
		faces
		(
			(14 15 11 10)
			(20 21 17 16)
			//(15 20 16 11)
		);
	}

	walls
	{
		type wall;
		faces
		(
			(7 4 0 3)			
			(4 5 1 0)
			//(6 7 3 2)
			
			(12 13 9 8)
			(13 14 10 9)
			
			(21 22 18 17)
			//(22 23 19 18)

			
			(29 30 26 25)
			(30 31 27 26)
			//(37 28 24 33)

			(38 39 35 34)
			(36 37 33 32)

			(47 44 40 43)
			(46 47 43 42)
			//(45 36 32 41)
		);
	}
	
	interface1
	{	
		type wall;
		faces
		(	
			(15 12 8 11)		
			(23 20 16 19)
		);
	}

	interface2
	{	
		type wall;
		faces
		(	
			(5 6 2 1)
		
		);
	}

	interface3
	{	
		type wall;
		faces
		(	
			(28 29 25 24)	
			(44 45 41 40)
		);
	}

	interface4
	{	
		type wall;
		faces
		(	
			
			(22 23 19 18)
		
		);
	}
	
	
	
	interface5
	{	
		type wall;
		faces
		(	
			(37 38 34 33)
			

		);
	}
	interface6
	{	
		type wall;
		faces
		(	
			(31 28 24 27)		
		
		);
	}

	interface7
	{	
		type wall;
		faces
		(	
			(39 36 32 35)
			

		);
	}
	interface8
	{	
		type wall;
		faces
		(	
			(45 46 42 41)		
		
		);
	}
);
mergePatchPairs
(
	(interface1 interface2)	
	(interface3 interface4)
	(interface5 interface6)
	(interface7 interface8)
	
);

// ************************************************************************* //
